*fo4.sp
*----------------------------------------------------------------------
* Parameters and models
*----------------------------------------------------------------------
.param SUPPLY=1.8
.param H=4
.option scale=25n
.lib '/home/Cordero_Fallas_I_2024_vlsi/Tutorial/Hspice/lp5mos/xt018.lib' tm
.lib '/home/Cordero_Fallas_I_2024_vlsi/Tutorial/Hspice/lp5mos/param.lib' 3s
.lib '/home/Cordero_Fallas_I_2024_vlsi/Tutorial/Hspice/lp5mos/config.lib' default
.temp 70
.option post
*----------------------------------------------------------------------
* Subcircuits
*----------------------------------------------------------------------
.global vdd gnd
.subckt inv a y N=7.2 P=14.4
xm0 y a gnd gnd ne W='N' L=8.8
+ AS='N*5' PS='2*N+10' AD='N*5' PD='2*N+10'
xm1 y a vdd vdd pe W='P' L=8.8
+ AS='P*5' PS='2*P+10' AD='P*5' PD='2*P+10'
.ends
*----------------------------------------------------------------------
* Simulation netlist
*----------------------------------------------------------------------
Vdd vdd gnd 'SUPPLY'
Vin a gnd PULSE 0 'SUPPLY' 0ps 20ps 20ps 320ps 580ps
X1 a b inv P='P1' * shape input waveform
X2 b c inv P='P1' M=4 * reshape input waveform
X3 c d inv P='P1' M=16 * device under test
X4 d e inv P='P1' M=64 * load
X5 e f inv P='P1' M=256 * load on load
*----------------------------------------------------------------------
* Optimization setup
*----------------------------------------------------------------------
.param P1=optrange(28.8, 7.2, 64.8) * search from 4 to 16, guess 8
.model optmod opt itropt=30 * maximum of 30 iterations
.measure bestratio param='P1/7.2' * compute best P/N ratio
*----------------------------------------------------------------------
*----------------------------------------------------------------------
* Stimulus
*----------------------------------------------------------------------
.tran 0.1ps 1000ps SWEEP OPTIMIZE=optrange RESULTS=diff MODEL=optmod
.measure tpdr * rising propagation delay
+ TRIG v(c) VAL='SUPPLY/2' FALL=1
+ TARG v(d) VAL='SUPPLY/2' RISE=1
.measure tpdf * falling propagation delay
+ TRIG v(c) VAL='SUPPLY/2' RISE=1
+ TARG v(d) VAL='SUPPLY/2' FALL=1
.measure tpd param='(tpdr+tpdf)/2' goal=0 * average prop delay
.measure diff param='abs(tpdr-tpdf)' goal = 0 * diff between delays
.end
